% README file  $Revision: 1.1 $  $Date: 2007/02/14 04:50:07 $
%
%    SEAWATER is a toolkit of MATLAB routines for calculating the
%    properties of sea water. They are a self contained library and
%    are extremely easy to use.  
%
% See the file sw_info.m for info on installation and usage
